OPT_V9/4ts_w_storgae_myc/powerflow_results_t1.txt
Pandapower Network Debug Info
==================================================

BUS:
       vm_pu  va_degree      p_mw    q_mvar
0   1.001171   0.272358 -0.007350  0.001022
1   1.002291   0.320013  0.001448  0.001627
2   1.006455   0.366883 -0.003324 -0.001679
3   0.997277   0.347070  0.002671  0.004033
4   1.002521   0.409409 -0.002776  0.001939
5   1.003068   0.375320 -0.003341  0.004393
6   1.006673   0.440401 -0.003232 -0.001202
7   1.002660   0.272741 -0.005859  0.002320
8   1.001000   0.124319 -0.006867  0.002484
9   0.999937   0.002423  0.003553  0.009833
10  0.999928   0.002637  0.004601  0.008109
11  0.999920   0.002814  0.006296  0.011211
12  0.999940   0.006881  0.000688  0.005584
13  0.999918   0.007330  0.004869  0.011365
14  0.999925   0.007118  0.008622  0.009925
15  0.999965   0.001630  0.000000  0.000000
16  0.999965   0.001633  0.000000  0.000000
17  0.999941   0.006780  0.000000  0.000000
18  0.999942   0.006787  0.000000  0.000000
19  1.000000   0.000000 -0.007979 -0.039206
20  1.000000   0.000005  0.000000  0.000000
21  1.000000   0.000000  0.007759 -0.041898
22  1.000000   0.000006  0.000000  0.000000
--------------------------------------------------

LINE:
    p_from_mw  q_from_mvar   p_to_mw  q_to_mvar         pl_mw       ql_mvar  i_from_ka   i_to_ka      i_ka  vm_from_pu  va_from_degree  vm_to_pu  va_to_degree  loading_percent
0    0.007969     0.035206 -0.007968  -0.035205  1.274481e-06  9.937338e-07   0.001389  0.001389  0.001389    1.000000        0.000005  0.999965      0.001630         0.604071
1   -0.007769     0.037898  0.007773  -0.037895  4.025687e-06  3.138894e-06   0.001489  0.001489  0.001489    1.000000        0.000006  0.999941      0.006780         0.647403
2    0.014451     0.029154 -0.014450  -0.029153  8.187930e-07  6.384264e-07   0.001252  0.001252  0.001252    0.999965        0.001630  0.999937      0.002423         0.544551
3    0.000688     0.005584 -0.000688  -0.005584  1.094952e-08  8.537521e-09   0.000217  0.000217  0.000217    0.999941        0.006780  0.999940      0.006881         0.094165
4    0.013492     0.021290 -0.013492  -0.021290  3.474213e-07  2.708901e-07   0.000970  0.000970  0.000970    0.999941        0.006780  0.999925      0.007118         0.421830
5   -0.006493     0.005051  0.006524  -0.005026  3.165323e-05  2.468054e-05   0.011874  0.011874  0.011874    0.999965        0.001633  1.001171      0.272358         5.162586
6   -0.006522     0.003231  0.006563  -0.003199  4.109922e-05  3.204574e-05   0.010505  0.010505  0.010505    0.999942        0.006787  1.003068      0.375320         4.567606
7   -0.005833     0.002341  0.005859  -0.002320  2.668866e-05  2.080959e-05   0.009072  0.009072  0.009072    0.999942        0.006787  1.002660      0.272741         3.944280
8   -0.009609     0.004449  0.009629  -0.004434  1.928272e-05  1.503505e-05   0.015285  0.015285  0.015285    0.999942        0.006787  1.001000      0.124319         6.645848
9   -0.010897    -0.019320  0.010897   0.019320  1.701682e-07  1.326829e-07   0.000854  0.000854  0.000854    0.999928        0.002637  0.999937      0.002423         0.371221
10  -0.006296    -0.011211  0.006296   0.011211  8.087029e-08  6.305589e-08   0.000495  0.000495  0.000495    0.999920        0.002814  0.999928      0.002637         0.215194
11   0.004869     0.011365 -0.004869  -0.011365  7.478104e-08  5.830801e-08   0.000476  0.000476  0.000476    0.999925        0.007118  0.999918      0.007330         0.206934
12   0.001864     0.000042 -0.001862  -0.000041  2.046528e-06  1.595712e-06   0.002685  0.002685  0.002685    1.002291        0.320013  1.001171      0.272358         1.167178
13  -0.002671    -0.004033  0.002687   0.004045  1.570783e-05  1.224765e-05   0.007001  0.007001  0.007001    0.997277        0.347070  1.001171      0.272358         3.043855
14   0.003324     0.001679 -0.003311  -0.001670  1.238477e-05  9.656610e-06   0.005341  0.005341  0.005341    1.006455        0.366883  1.002291      0.320013         2.322035
15  -0.002762     0.001950  0.002776  -0.001939  1.388236e-05  1.082431e-05   0.004875  0.004875  0.004875    1.001000        0.124319  1.002521      0.409409         2.119737
16   0.003232     0.001202 -0.003222  -0.001195  1.021540e-05  7.965117e-06   0.004944  0.004944  0.004944    1.006673        0.440401  1.003068      0.375320         2.149634
--------------------------------------------------

TRAFO:
    p_hv_mw  q_hv_mvar   p_lv_mw  q_lv_mvar    pl_mw  ql_mvar   i_hv_ka   i_lv_ka  vm_hv_pu  va_hv_degree  vm_lv_pu  va_lv_degree  loading_percent
0 -0.006483   0.006051  0.006493  -0.005051  0.00001    0.001  0.000341  0.011874  0.999965       0.00163  0.999965      0.001633         0.088683
1 -0.021954   0.011020  0.021964  -0.010020  0.00001    0.001  0.000946  0.034847  0.999941       0.00678  0.999942      0.006787         0.245659
2  0.007979   0.039206 -0.007969  -0.035206  0.00001    0.004  0.000330  0.001389  1.000000       0.00000  1.000000      0.000005         0.100024
3 -0.007759   0.041898  0.007769  -0.037898  0.00001    0.004  0.000351  0.001489  1.000000       0.00000  1.000000      0.000006         0.106526
--------------------------------------------------
